src/test/resources/pst_special/process3/20260620_1130_2D1_UX0.uct
##C 2007.05.01
##N
##ZAT
OGREUT21 Greuth       0 0        75.4332 1.67013 8.18513 -03.417 5.52647 2.95777 0.36072 -44.511                               F
OLIENN11 Lienz        0 0        1.61383 8.69069 8.40795 -7.2734 6.57137 6.53966 0.14886 -8.1003                               F
OLIENN21 Lienz        0 0        55.7726 26.3521 -995.71 2.14170 22.5963 -359.45 71.7311 3.08988                               F
OLIENN22 Lienz        0 0        6.58744 0.98057 5.23506 4.93252
OMALTA21 Malta Haupts 0 2 520.77 593.799 1.64367 -299.73 -99.285 152.498 -5768.3 521.837 -710.57                               F
OMALTA22 Malta Haupts 0 0        3.99373 5.29533 -924.54 -67.926 118.645 -5683.6 0.77338 -80.128                               F
OROSEG21 Rosegg       0 0        7.88269 1.19745 -82.774 -9.2668 7.54684 -59.419 8.32687 -4.0231                               F
##ZIT
IMFTV121 MONFALC.CE g 0 0        4.75858 5.49167 8.37133 6.15598
IPDRV121 PADRICIANO g 0 0        27.1986 -1.7929 9.01628 4.02430
IPDRV122 PADRICIANO g 0 0        1.29767 6.08115 0.49269 1.08680
IRDPVA21 REDIPUGLIA g 0 0        03.2822 89.8542 5.07264 3.74762
##ZSI
LBERIC1  BERICEVO     0 0        1.88196 8.93915 3.51457 6.61404
LDIVAC11 DIVACA       0 0        7.22315 8.20680 7.76434 1.81902
LDIVAC12 LDIVAC12     0 0        8.26722 4.48274 0.28821 3.48667
LDIVAC51 LDIVAC51     0 0        379.225 8.63266 9.30666 1.55493
##ZXX
XLI_SO21 LNZO    211  0 0        9.14078 7.61253 5.66153 1.71169
XME_DI11              0 0        5.62860 2.94850 0.95197 0.14848
XPA_DI21              0 0        4.16522 8.12926 9.14865 0.46950
XRE_DI11              0 0        7.98666 9.04493 6.88540 6.66877
##L
IMFTV121 IPDRV121 1 0 4.7344 96.674 309.5922    800 XXXXXXXXXXXX
IMFTV121 IRDPVA21 1 0 9.2040 0.8543 32.08591    716 XXXXXXXXXXXX
IRDPVA21 IPDRV121 1 0 9.8805 63.290 239.2119    713 XXXXXXXXXXXX
LDIVAC11 LBERIC1  1 0 8.1201 83.096 532.4699   1920 XXXXXXXXXXXX
LDIVAC11 XME_DI11 1 0 9.0735 36.141 272.6270   1920 XXXXXXXXXXXX
LDIVAC12 LDIVAC11 2 7 2.7791 8.3742 6.884826   9999 XXXXXXXXXXXX
LDIVAC12 XRE_DI11 1 0 1.1910 3.7174 51.83821   2700 XXXXXXXXXXXX
OGREUT21 OLIENN21 1 0 2.3303 34.250 810.5778   2080 XXXXXXXXXXXX
OLIENN21 OLIENN22 1 7 6.6222 8.5532 2.320927   2154 XXXXXXXXXXXX
OLIENN21 OMALTA21 1 0 6.5398 94.884 321.7842   2400 XXXXXXXXXXXX
OLIENN21 OMALTA22 2 0 1.0243 12.274 065.1294   2000 XXXXXXXXXXXX
OLIENN21 OROSEG21 1 0 4.4977 98.447 339.9813   2000 XXXXXXXXXXXX
OLIENN22 XLI_SO21 1 0 0.6291 36.272 087.3355    637 XXXXXXXXXXXX
OMALTA21 OMALTA22 1 2 4.3295 7.8338 0.045568   2000 XXXXXXXXXXXX
XPA_DI21 IPDRV122 1 0 1.9684 4.3359 62.67495    900 XXXXXXXXXXXX
##T
IPDRV121 IPDRV122 1 8 953.5 809.0 247.5 0.9551 79.629 -7.73315 7.9680    928 XXXXXXXXXXXX
LDIVAC11 LDIVAC12 1 8 691.5 302.2 1200. 5.7339 95.184 -2.88621 8.1052   1732 XXXXXXXXXXXX
LDIVAC51 LDIVAC11 1 0 411.3 617.7 055.1 5.8860 3.6691 -532.094 30.582   1506 XXXXXXXXXXXX
OLIENN21 OLIENN11 1 0 296.2 165.1 832.1 9.2426 71.121 -69.8642 5.1107   1696 XXXXXXXXXXXX
OLIENN21 OLIENN11 2 0 229.4 872.9 122.5 3.8911 37.503 -35.8414 3.2471   1696 XXXXXXXXXXXX
OLIENN21 OLIENN22 2 0 599.1 015.4 372.6 0.8085 28.400 2.257174 2.8604    746 XXXXXXXXXXXX
##R
IPDRV121 IPDRV122 1                    7.429 75.12 16   1 3.077 SYMM
LDIVAC11 LDIVAC12 1                    9.321 55.42 32   0 1.457 SYMM
LDIVAC51 LDIVAC11 1 1.704 12  -1
OLIENN21 OLIENN11 1                    9.013 91.43 13   0       ASYM
OLIENN21 OLIENN11 2                    7.518 67.85 13   0       ASYM
OLIENN21 OLIENN22 2                    4.233 33.80 32   0       SYMM
